  3 
  iconf           11  0.95784000000000002     
  O    0.0000000000000000        0.0000000000000000        0.0000000000000000     
  H   0.75739505489735115      -0.58635330340762870        0.0000000000000000     
  H  -0.75739505489735115      -0.58635330340762870        0.0000000000000000     
