   6

O   0.0000000000000000        0.0000000000000000        0.000
H  -0.26312631683261728       0.92177640310981912       0.000
H   0.9645910938303689        4.0006988432649347E-002   0.000
O   2.9125407227330018        0.0000000000000000        0.000
H   3.3354011353264896      -0.41314678971687741      -0.75710308103585677     
H   3.3354011558614673      -0.41314667699843621       0.75710313896414105   
